2244
  Mrv0541 07031213132D          

 21 21  0  0  0  0            999 V2000
    3.8615    0.6773    0.0000 O   0  0  0  0  0  0  0  0  0  0  0  0
    6.0050   -0.5602    0.0000 O   0  0  0  0  0  0  0  0  0  0  0  0
    5.2905    0.6773    0.0000 O   0  0  0  0  0  0  0  0  0  0  0  0
    3.1471    1.9148    0.0000 O   0  0  0  0  0  0  0  0  0  0  0  0
    3.8615   -0.1477    0.0000 C   0  0  0  0  0  0  0  0  0  0  0  0
    4.5760   -0.5602    0.0000 C   0  0  0  0  0  0  0  0  0  0  0  0
    3.1471   -0.5602    0.0000 C   0  0  0  0  0  0  0  0  0  0  0  0
    4.5760   -1.3852    0.0000 C   0  0  0  0  0  0  0  0  0  0  0  0
    3.1471   -1.3852    0.0000 C   0  0  0  0  0  0  0  0  0  0  0  0
    3.8615   -1.7977    0.0000 C   0  0  0  0  0  0  0  0  0  0  0  0
    5.2905   -0.1477    0.0000 C   0  0  0  0  0  0  0  0  0  0  0  0
    3.1471    1.0898    0.0000 C   0  0  0  0  0  0  0  0  0  0  0  0
    2.4326    0.6773    0.0000 C   0  0  0  0  0  0  0  0  0  0  0  0
    2.4326   -0.1477    0.0000 H   0  0  0  0  0  0  0  0  0  0  0  0
    5.2905   -1.7977    0.0000 H   0  0  0  0  0  0  0  0  0  0  0  0
    2.4326   -1.7977    0.0000 H   0  0  0  0  0  0  0  0  0  0  0  0
    3.8615   -2.6227    0.0000 H   0  0  0  0  0  0  0  0  0  0  0  0
    2.0201    1.3917    0.0000 H   0  0  0  0  0  0  0  0  0  0  0  0
    1.7181    0.2648    0.0000 H   0  0  0  0  0  0  0  0  0  0  0  0
    2.8451   -0.0372    0.0000 H   0  0  0  0  0  0  0  0  0  0  0  0
    6.0050   -1.3852    0.0000 H   0  0  0  0  0  0  0  0  0  0  0  0
  1  5  1  0  0  0  0
  1 12  1  0  0  0  0
  2 11  1  0  0  0  0
  2 21  1  0  0  0  0
  3 11  2  0  0  0  0
  4 12  2  0  0  0  0
  5  6  1  0  0  0  0
  5  7  2  0  0  0  0
  6  8  2  0  0  0  0
  6 11  1  0  0  0  0
  7  9  1  0  0  0  0
  7 14  1  0  0  0  0
  8 10  1  0  0  0  0
  8 15  1  0  0  0  0
  9 10  2  0  0  0  0
  9 16  1  0  0  0  0
 10 17  1  0  0  0  0
 12 13  1  0  0  0  0
 13 18  1  0  0  0  0
 13 19  1  0  0  0  0
 13 20  1  0  0  0  0
M  END
>  <PUBCHEM_COMPOUND_CID>
2244

>  <PUBCHEM_COMPOUND_CANONICALIZED>
1

>  <PUBCHEM_CACTVS_COMPLEXITY>
212

>  <PUBCHEM_CACTVS_HBOND_ACCEPTOR>
4

>  <PUBCHEM_CACTVS_HBOND_DONOR>
1

>  <PUBCHEM_CACTVS_ROTATABLE_BOND>
3

>  <PUBCHEM_CACTVS_SUBSKEYS>
AAADccBwOAAAAAAAAAAAAAAAAAAAAAAAAAAwAAAAAAAAAAABAAAAGgAACAAADASAmAAyDoAABgCIAiDSCAACCAAkIAAIiAEGCMgMJzaENRqCe2Cl4BEIuYeIyCCOAAAAAAAIAAAAAAAAABAAAAAAAAAAAA==

>  <PUBCHEM_IUPAC_OPENEYE_NAME>
2-acetoxybenzoic acid

>  <PUBCHEM_IUPAC_CAS_NAME>
2-acetyloxybenzoic acid

>  <PUBCHEM_IUPAC_NAME>
2-acetyloxybenzoic acid

>  <PUBCHEM_IUPAC_SYSTEMATIC_NAME>
2-acetyloxybenzoic acid

>  <PUBCHEM_IUPAC_TRADITIONAL_NAME>
2-acetoxybenzoic acid

>  <PUBCHEM_IUPAC_INCHI>
InChI=1S/C9H8O4/c1-6(10)13-8-5-3-2-4-7(8)9(11)12/h2-5H,1H3,(H,11,12)

>  <PUBCHEM_IUPAC_INCHIKEY>
BSYNRYMUTXBXSQ-UHFFFAOYSA-N

>  <PUBCHEM_XLOGP3>
1.2

>  <PUBCHEM_EXACT_MASS>
180.042259

>  <PUBCHEM_MOLECULAR_FORMULA>
C9H8O4

>  <PUBCHEM_MOLECULAR_WEIGHT>
180.15742

>  <PUBCHEM_OPENEYE_CAN_SMILES>
CC(=O)OC1=CC=CC=C1C(=O)O

>  <PUBCHEM_OPENEYE_ISO_SMILES>
CC(=O)OC1=CC=CC=C1C(=O)O

>  <PUBCHEM_CACTVS_TPSA>
63.6

>  <PUBCHEM_MONOISOTOPIC_WEIGHT>
180.042259

>  <PUBCHEM_TOTAL_CHARGE>
0

>  <PUBCHEM_HEAVY_ATOM_COUNT>
13

>  <PUBCHEM_ATOM_DEF_STEREO_COUNT>
0

>  <PUBCHEM_ATOM_UDEF_STEREO_COUNT>
0

>  <PUBCHEM_BOND_DEF_STEREO_COUNT>
0

>  <PUBCHEM_BOND_UDEF_STEREO_COUNT>
0

>  <PUBCHEM_ISOTOPIC_ATOM_COUNT>
0

>  <PUBCHEM_COMPONENT_COUNT>
1

>  <PUBCHEM_CACTVS_TAUTO_COUNT>
1

>  <PUBCHEM_COORDINATE_TYPE>
1
5
255

>  <PUBCHEM_BONDANNOTATIONS>
5  6  8
5  7  8
6  8  8
7  9  8
8  10  8
9  10  8

$$$$
