=
 OpenBabel10072112193D

 18 19  0  0  1  0  0  0  0  0999 V2000
   35.0080  -44.7330   75.3520 C   0  0  0  0  0  0  0  0  0  0  0  0
   33.7930  -44.3270   75.9000 C   0  0  0  0  0  3  0  0  0  0  0  0
   32.6180  -44.5130   75.1870 C   0  0  0  0  0  3  0  0  0  0  0  0
   32.6230  -45.1030   73.9170 C   0  0  0  0  0  0  0  0  0  0  0  0
   33.8610  -45.5000   73.3920 C   0  0  0  0  0  3  0  0  0  0  0  0
   35.0460  -45.3240   74.0910 C   0  0  0  0  0  3  0  0  0  0  0  0
   31.3620  -45.3050   73.1440 C   0  0  0  0  0  0  0  0  0  0  0  0
   30.2000  -44.5850   73.4400 C   0  0  0  0  0  3  0  0  0  0  0  0
   29.0340  -44.7790   72.7080 C   0  0  0  0  0  3  0  0  0  0  0  0
   29.0040  -45.6830   71.6650 C   0  0  0  0  0  3  0  0  0  0  0  0
   30.1430  -46.4080   71.3550 C   0  0  0  0  0  3  0  0  0  0  0  0
   31.3100  -46.2170   72.0850 C   0  0  0  0  0  3  0  0  0  0  0  0
   36.1670  -44.5390   76.0710 O   0  0  0  0  0  0  0  0  0  0  0  0
   38.5160  -44.6640   76.2790 C   0  0  0  0  0  1  0  0  0  0  0  0
   37.3710  -44.2560   75.3650 C   0  0  2  0  0  3  0  0  0  0  0  0
   37.3610  -42.7730   75.0100 C   0  0  0  0  0  0  0  0  0  0  0  0
   36.9930  -41.9680   75.8890 O   0  0  0  0  0  1  0  0  0  0  0  0
   37.7070  -42.4670   73.8520 O   0  0  0  0  0  0  0  0  0  0  0  0
  1  2  1  0  0  0  0
  1 13  1  0  0  0  0
  3  2  2  0  0  0  0
  4  3  1  0  0  0  0
  5  4  2  0  0  0  0
  5  6  1  0  0  0  0
  6  1  2  0  0  0  0
  7  8  1  0  0  0  0
  7  4  1  0  0  0  0
  9  8  2  0  0  0  0
 10  9  1  0  0  0  0
 11 10  2  0  0  0  0
 11 12  1  0  0  0  0
 12  7  2  0  0  0  0
 15 13  1  0  0  0  0
 15 14  1  1  0  0  0
 16 15  1  0  0  0  0
 16 17  1  0  0  0  0
 18 16  2  0  0  0  0
M  END
>  <MODEL>
1

>  <REMARK>
 VINA RESULT:    -6.357      0.000      0.000
 INTER + INTRA:          -8.453
 INTER:                  -7.821
 INTRA:                  -0.632
 UNBOUND:                -0.610
  Name = 
  5 active torsions:
  status: ('A' for Active; 'I' for Inactive)
    1  A    between atoms: C_1  and  C_8
    2  A    between atoms: C_2  and  C_13
    3  A    between atoms: C_8  and  C_9
    4  A    between atoms: C_8  and  O_18
    5  A    between atoms: C_10  and  O_18
                            x       y       z     vdW  Elec       q    Type
                         _______ _______ _______ _____ _____    ______ ____

>  <TORSDO>
F 4

>  <SCORE>
-6.357

>  <RMSD_LB>
0.000

>  <RMSD_UB>
0.000

$$$$
=
 OpenBabel10072112193D

 18 19  0  0  1  0  0  0  0  0999 V2000
   35.0910  -44.7350   75.4240 C   0  0  0  0  0  0  0  0  0  0  0  0
   35.1230  -45.3160   74.1580 C   0  0  0  0  0  3  0  0  0  0  0  0
   33.9440  -45.4930   73.4500 C   0  0  0  0  0  3  0  0  0  0  0  0
   32.7090  -45.1010   73.9830 C   0  0  0  0  0  0  0  0  0  0  0  0
   32.7100  -44.5210   75.2590 C   0  0  0  0  0  3  0  0  0  0  0  0
   33.8790  -44.3330   75.9800 C   0  0  0  0  0  3  0  0  0  0  0  0
   31.4360  -45.2900   73.2270 C   0  0  0  0  0  0  0  0  0  0  0  0
   31.3410  -46.2070   72.1750 C   0  0  0  0  0  3  0  0  0  0  0  0
   30.1470  -46.3780   71.4830 C   0  0  0  0  0  3  0  0  0  0  0  0
   29.0260  -45.6490   71.8280 C   0  0  0  0  0  3  0  0  0  0  0  0
   29.0990  -44.7350   72.8670 C   0  0  0  0  0  3  0  0  0  0  0  0
   30.2910  -44.5620   73.5600 C   0  0  0  0  0  3  0  0  0  0  0  0
   36.2700  -44.5680   76.1170 O   0  0  0  0  0  0  0  0  0  0  0  0
   38.6240  -44.6330   76.2880 C   0  0  0  0  0  1  0  0  0  0  0  0
   37.4550  -44.2650   75.3880 C   0  0  2  0  0  3  0  0  0  0  0  0
   37.4020  -42.7870   75.0140 C   0  0  0  0  0  0  0  0  0  0  0  0
   37.0060  -41.9830   75.8810 O   0  0  0  0  0  1  0  0  0  0  0  0
   37.7460  -42.4860   73.8550 O   0  0  0  0  0  0  0  0  0  0  0  0
  1  6  1  0  0  0  0
  1 13  1  0  0  0  0
  2  1  2  0  0  0  0
  3  4  2  0  0  0  0
  3  2  1  0  0  0  0
  4  5  1  0  0  0  0
  5  6  2  0  0  0  0
  7 12  1  0  0  0  0
  7  4  1  0  0  0  0
  8  7  2  0  0  0  0
  9 10  2  0  0  0  0
  9  8  1  0  0  0  0
 10 11  1  0  0  0  0
 11 12  2  0  0  0  0
 15 13  1  0  0  0  0
 15 14  1  1  0  0  0
 16 15  1  0  0  0  0
 16 17  1  0  0  0  0
 18 16  2  0  0  0  0
M  END
>  <MODEL>
2

>  <REMARK>
 VINA RESULT:    -6.323      0.114      1.603
 INTER + INTRA:          -8.412
 INTER:                  -7.813
 INTRA:                  -0.599
 UNBOUND:                -0.610
  Name = 
  5 active torsions:
  status: ('A' for Active; 'I' for Inactive)
    1  A    between atoms: C_1  and  C_8
    2  A    between atoms: C_2  and  C_13
    3  A    between atoms: C_8  and  C_9
    4  A    between atoms: C_8  and  O_18
    5  A    between atoms: C_10  and  O_18
                            x       y       z     vdW  Elec       q    Type
                         _______ _______ _______ _____ _____    ______ ____

>  <TORSDO>
F 4

>  <SCORE>
-6.323

>  <RMSD_LB>
0.114

>  <RMSD_UB>
1.603

$$$$
=
 OpenBabel10072112193D

 18 19  0  0  1  0  0  0  0  0999 V2000
   31.4570  -45.1830   73.6710 C   0  0  0  0  0  0  0  0  0  0  0  0
   31.8010  -44.4170   74.7830 C   0  0  0  0  0  3  0  0  0  0  0  0
   33.1150  -44.3950   75.2250 C   0  0  0  0  0  3  0  0  0  0  0  0
   34.1140  -45.1330   74.5770 C   0  0  0  0  0  0  0  0  0  0  0  0
   33.7350  -45.8950   73.4630 C   0  0  0  0  0  3  0  0  0  0  0  0
   32.4270  -45.9270   73.0040 C   0  0  0  0  0  3  0  0  0  0  0  0
   35.5300  -45.1150   75.0490 C   0  0  0  0  0  0  0  0  0  0  0  0
   36.0370  -44.0480   75.7980 C   0  0  0  0  0  3  0  0  0  0  0  0
   37.3560  -44.0460   76.2360 C   0  0  0  0  0  3  0  0  0  0  0  0
   38.1910  -45.1070   75.9480 C   0  0  0  0  0  3  0  0  0  0  0  0
   37.7100  -46.1740   75.2070 C   0  0  0  0  0  3  0  0  0  0  0  0
   36.3920  -46.1780   74.7670 C   0  0  0  0  0  3  0  0  0  0  0  0
   30.1460  -45.1970   73.2450 O   0  0  0  0  0  0  0  0  0  0  0  0
   28.9130  -43.6650   71.9380 C   0  0  0  0  0  1  0  0  0  0  0  0
   29.8620  -44.8530   71.8940 C   0  0  2  0  0  3  0  0  0  0  0  0
   29.2770  -46.0880   71.2150 C   0  0  0  0  0  0  0  0  0  0  0  0
   28.7090  -46.9310   71.9370 O   0  0  0  0  0  1  0  0  0  0  0  0
   29.4240  -46.1770   69.9810 O   0  0  0  0  0  0  0  0  0  0  0  0
  1  2  1  0  0  0  0
  2  3  2  0  0  0  0
  4  7  1  0  0  0  0
  4  3  1  0  0  0  0
  5  4  2  0  0  0  0
  6  5  1  0  0  0  0
  6  1  2  0  0  0  0
  7  8  1  0  0  0  0
  8  9  2  0  0  0  0
 10  9  1  0  0  0  0
 11 10  2  0  0  0  0
 12  7  2  0  0  0  0
 12 11  1  0  0  0  0
 13  1  1  0  0  0  0
 15 14  1  1  0  0  0
 15 13  1  0  0  0  0
 16 15  1  0  0  0  0
 16 17  1  0  0  0  0
 18 16  2  0  0  0  0
M  END
>  <MODEL>
3

>  <REMARK>
 VINA RESULT:    -5.788      3.548      7.096
 INTER + INTRA:          -7.752
 INTER:                  -7.142
 INTRA:                  -0.610
 UNBOUND:                -0.610
  Name = 
  5 active torsions:
  status: ('A' for Active; 'I' for Inactive)
    1  A    between atoms: C_1  and  C_8
    2  A    between atoms: C_2  and  C_13
    3  A    between atoms: C_8  and  C_9
    4  A    between atoms: C_8  and  O_18
    5  A    between atoms: C_10  and  O_18
                            x       y       z     vdW  Elec       q    Type
                         _______ _______ _______ _____ _____    ______ ____

>  <TORSDO>
F 4

>  <SCORE>
-5.788

>  <RMSD_LB>
3.548

>  <RMSD_UB>
7.096

$$$$
=
 OpenBabel10072112193D

 18 19  0  0  1  0  0  0  0  0999 V2000
   31.5600  -44.9070   73.7300 C   0  0  0  0  0  0  0  0  0  0  0  0
   32.5520  -45.3690   72.8660 C   0  0  0  0  0  3  0  0  0  0  0  0
   33.8680  -45.4330   73.2990 C   0  0  0  0  0  3  0  0  0  0  0  0
   34.2290  -45.0390   74.5930 C   0  0  0  0  0  0  0  0  0  0  0  0
   33.2090  -44.5770   75.4380 C   0  0  0  0  0  3  0  0  0  0  0  0
   31.8870  -44.5090   75.0240 C   0  0  0  0  0  3  0  0  0  0  0  0
   35.6430  -45.1040   75.0640 C   0  0  0  0  0  0  0  0  0  0  0  0
   36.4620  -46.2000   74.7710 C   0  0  0  0  0  3  0  0  0  0  0  0
   37.7800  -46.2450   75.2100 C   0  0  0  0  0  3  0  0  0  0  0  0
   38.3110  -45.2000   75.9400 C   0  0  0  0  0  3  0  0  0  0  0  0
   37.5180  -44.1050   76.2430 C   0  0  0  0  0  3  0  0  0  0  0  0
   36.2000  -44.0570   75.8050 C   0  0  0  0  0  3  0  0  0  0  0  0
   30.2570  -44.8460   73.2860 O   0  0  0  0  0  0  0  0  0  0  0  0
   28.9010  -43.9050   71.5980 C   0  0  0  0  0  1  0  0  0  0  0  0
   30.0080  -44.9070   71.8860 C   0  0  2  0  0  3  0  0  0  0  0  0
   29.6430  -46.3480   71.5430 C   0  0  0  0  0  0  0  0  0  0  0  0
   30.3370  -46.9340   70.6890 O   0  0  0  0  0  0  0  0  0  0  0  0
   28.6610  -46.8370   72.1330 O   0  0  0  0  0  1  0  0  0  0  0  0
  1  6  1  0  0  0  0
  2  3  1  0  0  0  0
  2  1  2  0  0  0  0
  3  4  2  0  0  0  0
  4  7  1  0  0  0  0
  4  5  1  0  0  0  0
  6  5  2  0  0  0  0
  7 12  1  0  0  0  0
  8  7  2  0  0  0  0
  8  9  1  0  0  0  0
  9 10  2  0  0  0  0
 10 11  1  0  0  0  0
 12 11  2  0  0  0  0
 13  1  1  0  0  0  0
 15 14  1  1  0  0  0
 15 13  1  0  0  0  0
 16 15  1  0  0  0  0
 16 18  1  0  0  0  0
 17 16  2  0  0  0  0
M  END
>  <MODEL>
4

>  <REMARK>
 VINA RESULT:    -5.720      3.392      7.237
 INTER + INTRA:          -7.668
 INTER:                  -7.215
 INTRA:                  -0.454
 UNBOUND:                -0.610
  Name = 
  5 active torsions:
  status: ('A' for Active; 'I' for Inactive)
    1  A    between atoms: C_1  and  C_8
    2  A    between atoms: C_2  and  C_13
    3  A    between atoms: C_8  and  C_9
    4  A    between atoms: C_8  and  O_18
    5  A    between atoms: C_10  and  O_18
                            x       y       z     vdW  Elec       q    Type
                         _______ _______ _______ _____ _____    ______ ____

>  <TORSDO>
F 4

>  <SCORE>
-5.720

>  <RMSD_LB>
3.392

>  <RMSD_UB>
7.237

$$$$
=
 OpenBabel10072112193D

 18 19  0  0  1  0  0  0  0  0999 V2000
   34.1650  -41.9580   78.9790 C   0  0  0  0  0  0  0  0  0  0  0  0
   32.9600  -41.9270   78.2780 C   0  0  0  0  0  3  0  0  0  0  0  0
   32.7450  -42.8170   77.2360 C   0  0  0  0  0  3  0  0  0  0  0  0
   33.7190  -43.7540   76.8660 C   0  0  0  0  0  0  0  0  0  0  0  0
   34.9200  -43.7590   77.5890 C   0  0  0  0  0  3  0  0  0  0  0  0
   35.1520  -42.8790   78.6350 C   0  0  0  0  0  3  0  0  0  0  0  0
   33.4940  -44.7130   75.7450 C   0  0  0  0  0  0  0  0  0  0  0  0
   32.2450  -45.3030   75.5280 C   0  0  0  0  0  3  0  0  0  0  0  0
   32.0470  -46.1900   74.4760 C   0  0  0  0  0  3  0  0  0  0  0  0
   33.0830  -46.5000   73.6170 C   0  0  0  0  0  3  0  0  0  0  0  0
   34.3290  -45.9280   73.8150 C   0  0  0  0  0  3  0  0  0  0  0  0
   34.5300  -45.0410   74.8650 C   0  0  0  0  0  3  0  0  0  0  0  0
   34.3660  -41.0660   80.0090 O   0  0  0  0  0  0  0  0  0  0  0  0
   35.9080  -39.4340   79.2790 C   0  0  0  0  0  1  0  0  0  0  0  0
   34.4680  -39.6790   79.7040 C   0  0  2  0  0  3  0  0  0  0  0  0
   34.0480  -38.9000   80.9460 C   0  0  0  0  0  0  0  0  0  0  0  0
   34.8630  -38.8240   81.8860 O   0  0  0  0  0  1  0  0  0  0  0  0
   32.9040  -38.4060   80.9420 O   0  0  0  0  0  0  0  0  0  0  0  0
  1 13  1  0  0  0  0
  2  1  2  0  0  0  0
  3  2  1  0  0  0  0
  4  3  2  0  0  0  0
  4  5  1  0  0  0  0
  5  6  2  0  0  0  0
  6  1  1  0  0  0  0
  7  4  1  0  0  0  0
  8  7  1  0  0  0  0
  9  8  2  0  0  0  0
 10 11  2  0  0  0  0
 10  9  1  0  0  0  0
 11 12  1  0  0  0  0
 12  7  2  0  0  0  0
 15 14  1  1  0  0  0
 15 13  1  0  0  0  0
 15 16  1  0  0  0  0
 16 17  1  0  0  0  0
 18 16  2  0  0  0  0
M  END
>  <MODEL>
5

>  <REMARK>
 VINA RESULT:    -5.703      4.140      5.395
 INTER + INTRA:          -7.647
 INTER:                  -7.062
 INTRA:                  -0.585
 UNBOUND:                -0.610
  Name = 
  5 active torsions:
  status: ('A' for Active; 'I' for Inactive)
    1  A    between atoms: C_1  and  C_8
    2  A    between atoms: C_2  and  C_13
    3  A    between atoms: C_8  and  C_9
    4  A    between atoms: C_8  and  O_18
    5  A    between atoms: C_10  and  O_18
                            x       y       z     vdW  Elec       q    Type
                         _______ _______ _______ _____ _____    ______ ____

>  <TORSDO>
F 4

>  <SCORE>
-5.703

>  <RMSD_LB>
4.140

>  <RMSD_UB>
5.395

$$$$
=
 OpenBabel10072112193D

 18 19  0  0  1  0  0  0  0  0999 V2000
   35.9740  -45.0950   75.6670 C   0  0  0  0  0  0  0  0  0  0  0  0
   34.8530  -44.6730   76.3790 C   0  0  0  0  0  3  0  0  0  0  0  0
   33.6080  -44.6750   75.7700 C   0  0  0  0  0  3  0  0  0  0  0  0
   33.4470  -45.0920   74.4430 C   0  0  0  0  0  0  0  0  0  0  0  0
   34.5940  -45.5100   73.7520 C   0  0  0  0  0  3  0  0  0  0  0  0
   35.8460  -45.5180   74.3460 C   0  0  0  0  0  3  0  0  0  0  0  0
   32.1090  -45.0950   73.7810 C   0  0  0  0  0  0  0  0  0  0  0  0
   31.7660  -46.0620   72.8300 C   0  0  0  0  0  3  0  0  0  0  0  0
   30.5140  -46.0570   72.2260 C   0  0  0  0  0  3  0  0  0  0  0  0
   29.5790  -45.0980   72.5600 C   0  0  0  0  0  3  0  0  0  0  0  0
   29.8980  -44.1300   73.4990 C   0  0  0  0  0  3  0  0  0  0  0  0
   31.1480  -44.1330   74.1050 C   0  0  0  0  0  3  0  0  0  0  0  0
   37.2060  -45.0850   76.2840 O   0  0  0  0  0  0  0  0  0  0  0  0
   37.2800  -42.9640   75.2490 C   0  0  0  0  0  1  0  0  0  0  0  0
   38.0620  -43.9660   76.0860 C   0  0  2  0  0  3  0  0  0  0  0  0
   39.3360  -44.4710   75.4160 C   0  0  0  0  0  0  0  0  0  0  0  0
   40.3760  -43.8000   75.5670 O   0  0  0  0  0  1  0  0  0  0  0  0
   39.2450  -45.5180   74.7460 O   0  0  0  0  0  0  0  0  0  0  0  0
  1 13  1  0  0  0  0
  1  2  1  0  0  0  0
  3  2  2  0  0  0  0
  4  3  1  0  0  0  0
  5  6  1  0  0  0  0
  5  4  2  0  0  0  0
  6  1  2  0  0  0  0
  7 12  1  0  0  0  0
  7  4  1  0  0  0  0
  8  7  2  0  0  0  0
  9 10  2  0  0  0  0
  9  8  1  0  0  0  0
 10 11  1  0  0  0  0
 11 12  2  0  0  0  0
 15 14  1  6  0  0  0
 15 13  1  0  0  0  0
 16 17  1  0  0  0  0
 16 15  1  0  0  0  0
 18 16  2  0  0  0  0
M  END
>  <MODEL>
6

>  <REMARK>
 VINA RESULT:    -5.486      1.419      2.088
 INTER + INTRA:          -7.380
 INTER:                  -7.439
 INTRA:                   0.059
 UNBOUND:                -0.610
  Name = 
  5 active torsions:
  status: ('A' for Active; 'I' for Inactive)
    1  A    between atoms: C_1  and  C_8
    2  A    between atoms: C_2  and  C_13
    3  A    between atoms: C_8  and  C_9
    4  A    between atoms: C_8  and  O_18
    5  A    between atoms: C_10  and  O_18
                            x       y       z     vdW  Elec       q    Type
                         _______ _______ _______ _____ _____    ______ ____

>  <TORSDO>
F 4

>  <SCORE>
-5.486

>  <RMSD_LB>
1.419

>  <RMSD_UB>
2.088

$$$$
=
 OpenBabel10072112193D

 18 19  0  0  1  0  0  0  0  0999 V2000
   35.9080  -42.1750   77.1210 C   0  0  0  0  0  0  0  0  0  0  0  0
   36.1040  -40.8030   77.2650 C   0  0  0  0  0  3  0  0  0  0  0  0
   35.5590  -40.1390   78.3540 C   0  0  0  0  0  3  0  0  0  0  0  0
   34.8080  -40.8200   79.3210 C   0  0  0  0  0  0  0  0  0  0  0  0
   34.6280  -42.1990   79.1470 C   0  0  0  0  0  3  0  0  0  0  0  0
   35.1680  -42.8810   78.0670 C   0  0  0  0  0  3  0  0  0  0  0  0
   34.2170  -40.1110   80.4930 C   0  0  0  0  0  0  0  0  0  0  0  0
   35.0050  -39.3380   81.3530 C   0  0  0  0  0  3  0  0  0  0  0  0
   34.4420  -38.6780   82.4390 C   0  0  0  0  0  3  0  0  0  0  0  0
   33.0860  -38.7660   82.6850 C   0  0  0  0  0  3  0  0  0  0  0  0
   32.2870  -39.5260   81.8470 C   0  0  0  0  0  3  0  0  0  0  0  0
   32.8470  -40.1870   80.7610 C   0  0  0  0  0  3  0  0  0  0  0  0
   36.4530  -42.8210   76.0330 O   0  0  0  0  0  0  0  0  0  0  0  0
   38.2800  -44.3170   76.0440 C   0  0  0  0  0  1  0  0  0  0  0  0
   36.7660  -44.2050   76.1440 C   0  0  2  0  0  3  0  0  0  0  0  0
   36.0160  -44.9380   75.0360 C   0  0  0  0  0  0  0  0  0  0  0  0
   35.0570  -44.3510   74.4980 O   0  0  0  0  0  0  0  0  0  0  0  0
   36.4060  -46.0880   74.7560 O   0  0  0  0  0  1  0  0  0  0  0  0
  1  2  2  0  0  0  0
  1  6  1  0  0  0  0
  2  3  1  0  0  0  0
  3  4  2  0  0  0  0
  4  7  1  0  0  0  0
  5  4  1  0  0  0  0
  6  5  2  0  0  0  0
  7 12  2  0  0  0  0
  7  8  1  0  0  0  0
  8  9  2  0  0  0  0
  9 10  1  0  0  0  0
 11 10  2  0  0  0  0
 12 11  1  0  0  0  0
 13 15  1  0  0  0  0
 13  1  1  0  0  0  0
 15 14  1  6  0  0  0
 16 15  1  0  0  0  0
 17 16  2  0  0  0  0
 18 16  1  0  0  0  0
M  END
>  <MODEL>
7

>  <REMARK>
 VINA RESULT:    -5.163      4.998      7.637
 INTER + INTRA:          -6.981
 INTER:                  -6.348
 INTRA:                  -0.633
 UNBOUND:                -0.610
  Name = 
  5 active torsions:
  status: ('A' for Active; 'I' for Inactive)
    1  A    between atoms: C_1  and  C_8
    2  A    between atoms: C_2  and  C_13
    3  A    between atoms: C_8  and  C_9
    4  A    between atoms: C_8  and  O_18
    5  A    between atoms: C_10  and  O_18
                            x       y       z     vdW  Elec       q    Type
                         _______ _______ _______ _____ _____    ______ ____

>  <TORSDO>
F 4

>  <SCORE>
-5.163

>  <RMSD_LB>
4.998

>  <RMSD_UB>
7.637

$$$$
=
 OpenBabel10072112193D

 18 19  0  0  1  0  0  0  0  0999 V2000
   30.1000  -45.2800   72.5620 C   0  0  0  0  0  0  0  0  0  0  0  0
   30.2960  -44.3210   73.5550 C   0  0  0  0  0  3  0  0  0  0  0  0
   31.5040  -44.2670   74.2340 C   0  0  0  0  0  3  0  0  0  0  0  0
   32.5420  -45.1630   73.9450 C   0  0  0  0  0  0  0  0  0  0  0  0
   32.3130  -46.1170   72.9430 C   0  0  0  0  0  3  0  0  0  0  0  0
   31.1130  -46.1830   72.2510 C   0  0  0  0  0  3  0  0  0  0  0  0
   33.8430  -45.1120   74.6730 C   0  0  0  0  0  0  0  0  0  0  0  0
   35.0230  -45.5930   74.0960 C   0  0  0  0  0  3  0  0  0  0  0  0
   36.2300  -45.5340   74.7830 C   0  0  0  0  0  3  0  0  0  0  0  0
   36.2890  -44.9880   76.0500 C   0  0  0  0  0  3  0  0  0  0  0  0
   35.1320  -44.5060   76.6410 C   0  0  0  0  0  3  0  0  0  0  0  0
   33.9240  -44.5640   75.9570 C   0  0  0  0  0  3  0  0  0  0  0  0
   28.8940  -45.3220   71.8980 O   0  0  0  0  0  0  0  0  0  0  0  0
   27.1190  -43.7900   71.6270 C   0  0  0  0  0  1  0  0  0  0  0  0
   28.4970  -44.1950   71.1270 C   0  0  2  0  0  3  0  0  0  0  0  0
   28.5260  -44.6060   69.6580 C   0  0  0  0  0  0  0  0  0  0  0  0
   28.2870  -43.7280   68.8050 O   0  0  0  0  0  0  0  0  0  0  0  0
   28.7720  -45.8030   69.4110 O   0  0  0  0  0  1  0  0  0  0  0  0
  1  2  1  0  0  0  0
  2  3  2  0  0  0  0
  4  3  1  0  0  0  0
  4  7  1  0  0  0  0
  5  4  2  0  0  0  0
  6  1  2  0  0  0  0
  6  5  1  0  0  0  0
  7 12  1  0  0  0  0
  8  7  2  0  0  0  0
  8  9  1  0  0  0  0
  9 10  2  0  0  0  0
 10 11  1  0  0  0  0
 12 11  2  0  0  0  0
 13  1  1  0  0  0  0
 15 14  1  1  0  0  0
 15 13  1  0  0  0  0
 16 15  1  0  0  0  0
 17 16  2  0  0  0  0
 18 16  1  0  0  0  0
M  END
>  <MODEL>
8

>  <REMARK>
 VINA RESULT:    -5.067      4.176      7.409
 INTER + INTRA:          -6.862
 INTER:                  -6.232
 INTRA:                  -0.630
 UNBOUND:                -0.610
  Name = 
  5 active torsions:
  status: ('A' for Active; 'I' for Inactive)
    1  A    between atoms: C_1  and  C_8
    2  A    between atoms: C_2  and  C_13
    3  A    between atoms: C_8  and  C_9
    4  A    between atoms: C_8  and  O_18
    5  A    between atoms: C_10  and  O_18
                            x       y       z     vdW  Elec       q    Type
                         _______ _______ _______ _____ _____    ______ ____

>  <TORSDO>
F 4

>  <SCORE>
-5.067

>  <RMSD_LB>
4.176

>  <RMSD_UB>
7.409

$$$$
=
 OpenBabel10072112193D

 18 19  0  0  1  0  0  0  0  0999 V2000
   32.4660  -43.8210   76.3140 C   0  0  0  0  0  0  0  0  0  0  0  0
   31.6740  -42.7520   76.7320 C   0  0  0  0  0  3  0  0  0  0  0  0
   32.1670  -41.8530   77.6650 C   0  0  0  0  0  3  0  0  0  0  0  0
   33.4520  -41.9950   78.2060 C   0  0  0  0  0  0  0  0  0  0  0  0
   34.2220  -43.0810   77.7670 C   0  0  0  0  0  3  0  0  0  0  0  0
   33.7480  -43.9880   76.8320 C   0  0  0  0  0  3  0  0  0  0  0  0
   33.9870  -41.0320   79.2120 C   0  0  0  0  0  0  0  0  0  0  0  0
   35.3520  -40.7350   79.2860 C   0  0  0  0  0  3  0  0  0  0  0  0
   35.8360  -39.8310   80.2240 C   0  0  0  0  0  3  0  0  0  0  0  0
   34.9750  -39.2000   81.0990 C   0  0  0  0  0  3  0  0  0  0  0  0
   33.6190  -39.4790   81.0440 C   0  0  0  0  0  3  0  0  0  0  0  0
   33.1310  -40.3820   80.1070 C   0  0  0  0  0  3  0  0  0  0  0  0
   31.9620  -44.7080   75.3880 O   0  0  0  0  0  0  0  0  0  0  0  0
   30.8900  -44.6650   73.2850 C   0  0  0  0  0  1  0  0  0  0  0  0
   32.2140  -44.4730   74.0070 C   0  0  2  0  0  3  0  0  0  0  0  0
   33.3070  -45.4430   73.5660 C   0  0  0  0  0  0  0  0  0  0  0  0
   34.4340  -44.9720   73.3170 O   0  0  0  0  0  0  0  0  0  0  0  0
   32.9890  -46.6440   73.4670 O   0  0  0  0  0  1  0  0  0  0  0  0
  1  2  2  0  0  0  0
  1  6  1  0  0  0  0
  2  3  1  0  0  0  0
  3  4  2  0  0  0  0
  4  7  1  0  0  0  0
  5  4  1  0  0  0  0
  6  5  2  0  0  0  0
  7  8  2  0  0  0  0
  7 12  1  0  0  0  0
  8  9  1  0  0  0  0
  9 10  2  0  0  0  0
 11 10  1  0  0  0  0
 12 11  2  0  0  0  0
 13  1  1  0  0  0  0
 15 14  1  6  0  0  0
 15 13  1  0  0  0  0
 16 15  1  0  0  0  0
 17 16  2  0  0  0  0
 18 16  1  0  0  0  0
M  END
>  <MODEL>
9

>  <REMARK>
 VINA RESULT:    -5.023      4.175      7.389
 INTER + INTRA:          -6.808
 INTER:                  -6.197
 INTRA:                  -0.610
 UNBOUND:                -0.610
  Name = 
  5 active torsions:
  status: ('A' for Active; 'I' for Inactive)
    1  A    between atoms: C_1  and  C_8
    2  A    between atoms: C_2  and  C_13
    3  A    between atoms: C_8  and  C_9
    4  A    between atoms: C_8  and  O_18
    5  A    between atoms: C_10  and  O_18
                            x       y       z     vdW  Elec       q    Type
                         _______ _______ _______ _____ _____    ______ ____

>  <TORSDO>
F 4

>  <SCORE>
-5.023

>  <RMSD_LB>
4.175

>  <RMSD_UB>
7.389

$$$$
