=
 OpenBabel10072112203D

 18 19  0  0  1  0  0  0  0  0999 V2000
   35.0080  -44.7330   75.3520 C   0  0  0  0  0  0  0  0  0  0  0  0
   33.7930  -44.3270   75.9000 C   0  0  0  0  0  3  0  0  0  0  0  0
   32.6180  -44.5130   75.1870 C   0  0  0  0  0  3  0  0  0  0  0  0
   32.6230  -45.1030   73.9170 C   0  0  0  0  0  0  0  0  0  0  0  0
   33.8610  -45.5000   73.3920 C   0  0  0  0  0  3  0  0  0  0  0  0
   35.0460  -45.3240   74.0910 C   0  0  0  0  0  3  0  0  0  0  0  0
   31.3620  -45.3050   73.1440 C   0  0  0  0  0  0  0  0  0  0  0  0
   30.2000  -44.5850   73.4400 C   0  0  0  0  0  3  0  0  0  0  0  0
   29.0340  -44.7790   72.7080 C   0  0  0  0  0  3  0  0  0  0  0  0
   29.0040  -45.6830   71.6650 C   0  0  0  0  0  3  0  0  0  0  0  0
   30.1430  -46.4080   71.3550 C   0  0  0  0  0  3  0  0  0  0  0  0
   31.3100  -46.2170   72.0850 C   0  0  0  0  0  3  0  0  0  0  0  0
   36.1670  -44.5390   76.0710 O   0  0  0  0  0  0  0  0  0  0  0  0
   38.5160  -44.6640   76.2790 C   0  0  0  0  0  1  0  0  0  0  0  0
   37.3710  -44.2560   75.3650 C   0  0  2  0  0  3  0  0  0  0  0  0
   37.3610  -42.7730   75.0100 C   0  0  0  0  0  0  0  0  0  0  0  0
   36.9930  -41.9680   75.8890 O   0  0  0  0  0  1  0  0  0  0  0  0
   37.7070  -42.4670   73.8520 O   0  0  0  0  0  0  0  0  0  0  0  0
  1  2  1  0  0  0  0
  1 13  1  0  0  0  0
  3  2  2  0  0  0  0
  4  3  1  0  0  0  0
  5  4  2  0  0  0  0
  5  6  1  0  0  0  0
  6  1  2  0  0  0  0
  7  8  1  0  0  0  0
  7  4  1  0  0  0  0
  9  8  2  0  0  0  0
 10  9  1  0  0  0  0
 11 10  2  0  0  0  0
 11 12  1  0  0  0  0
 12  7  2  0  0  0  0
 15 13  1  0  0  0  0
 15 14  1  1  0  0  0
 16 15  1  0  0  0  0
 16 17  1  0  0  0  0
 18 16  2  0  0  0  0
M  END
>  <MODEL>
1

>  <REMARK>
 VINA RESULT:    -6.341      0.000      0.000
 INTER + INTRA:          -8.453
 INTER:                  -7.821
 INTRA:                  -0.632
 UNBOUND:                -0.630
  Name = 
  5 active torsions:
  status: ('A' for Active; 'I' for Inactive)
    1  A    between atoms: C_1  and  C_8
    2  A    between atoms: C_2  and  C_13
    3  A    between atoms: C_8  and  C_9
    4  A    between atoms: C_8  and  O_18
    5  A    between atoms: C_10  and  O_18
                            x       y       z     vdW  Elec       q    Type
                         _______ _______ _______ _____ _____    ______ ____

>  <TORSDO>
F 4

>  <SCORE>
-6.341

>  <RMSD_LB>
0.000

>  <RMSD_UB>
0.000

$$$$
=
 OpenBabel10072112203D

 18 19  0  0  1  0  0  0  0  0999 V2000
   35.0020  -44.7270   75.3820 C   0  0  0  0  0  0  0  0  0  0  0  0
   35.0540  -45.3170   74.1200 C   0  0  0  0  0  3  0  0  0  0  0  0
   33.8840  -45.5070   73.3990 C   0  0  0  0  0  3  0  0  0  0  0  0
   32.6400  -45.1190   73.9140 C   0  0  0  0  0  0  0  0  0  0  0  0
   32.6220  -44.5310   75.1870 C   0  0  0  0  0  3  0  0  0  0  0  0
   33.7800  -44.3300   75.9210 C   0  0  0  0  0  3  0  0  0  0  0  0
   31.3780  -45.3220   73.1440 C   0  0  0  0  0  0  0  0  0  0  0  0
   31.3040  -46.2400   72.0910 C   0  0  0  0  0  3  0  0  0  0  0  0
   30.1210  -46.4240   71.3860 C   0  0  0  0  0  3  0  0  0  0  0  0
   28.9880  -45.7070   71.7190 C   0  0  0  0  0  3  0  0  0  0  0  0
   29.0390  -44.7930   72.7580 C   0  0  0  0  0  3  0  0  0  0  0  0
   30.2210  -44.6060   73.4650 C   0  0  0  0  0  3  0  0  0  0  0  0
   36.1720  -44.5480   76.0880 O   0  0  0  0  0  0  0  0  0  0  0  0
   38.5230  -44.6530   76.2780 C   0  0  0  0  0  1  0  0  0  0  0  0
   37.3670  -44.2610   75.3700 C   0  0  2  0  0  3  0  0  0  0  0  0
   37.3420  -42.7810   75.0030 C   0  0  0  0  0  0  0  0  0  0  0  0
   37.7100  -42.4620   73.8550 O   0  0  0  0  0  0  0  0  0  0  0  0
   36.9690  -41.9860   75.8880 O   0  0  0  0  0  1  0  0  0  0  0  0
  1  6  1  0  0  0  0
  1 13  1  0  0  0  0
  2  1  2  0  0  0  0
  3  4  2  0  0  0  0
  3  2  1  0  0  0  0
  4  5  1  0  0  0  0
  5  6  2  0  0  0  0
  7 12  1  0  0  0  0
  7  4  1  0  0  0  0
  8  7  2  0  0  0  0
  9 10  2  0  0  0  0
  9  8  1  0  0  0  0
 10 11  1  0  0  0  0
 11 12  2  0  0  0  0
 15 13  1  0  0  0  0
 15 14  1  1  0  0  0
 16 15  1  0  0  0  0
 16 18  1  0  0  0  0
 17 16  2  0  0  0  0
M  END
>  <MODEL>
2

>  <REMARK>
 VINA RESULT:    -6.304      0.031      1.762
 INTER + INTRA:          -8.409
 INTER:                  -7.800
 INTRA:                  -0.608
 UNBOUND:                -0.630
  Name = 
  5 active torsions:
  status: ('A' for Active; 'I' for Inactive)
    1  A    between atoms: C_1  and  C_8
    2  A    between atoms: C_2  and  C_13
    3  A    between atoms: C_8  and  C_9
    4  A    between atoms: C_8  and  O_18
    5  A    between atoms: C_10  and  O_18
                            x       y       z     vdW  Elec       q    Type
                         _______ _______ _______ _____ _____    ______ ____

>  <TORSDO>
F 4

>  <SCORE>
-6.304

>  <RMSD_LB>
0.031

>  <RMSD_UB>
1.762

$$$$
=
 OpenBabel10072112203D

 18 19  0  0  1  0  0  0  0  0999 V2000
   31.4850  -45.1280   73.6890 C   0  0  0  0  0  0  0  0  0  0  0  0
   31.8290  -44.4000   74.8260 C   0  0  0  0  0  3  0  0  0  0  0  0
   33.1420  -44.3970   75.2730 C   0  0  0  0  0  3  0  0  0  0  0  0
   34.1400  -45.1170   74.6040 C   0  0  0  0  0  0  0  0  0  0  0  0
   33.7630  -45.8410   73.4640 C   0  0  0  0  0  3  0  0  0  0  0  0
   32.4560  -45.8530   73.0010 C   0  0  0  0  0  3  0  0  0  0  0  0
   35.5540  -45.1190   75.0800 C   0  0  0  0  0  0  0  0  0  0  0  0
   36.4410  -46.1430   74.7320 C   0  0  0  0  0  3  0  0  0  0  0  0
   37.7580  -46.1300   75.1780 C   0  0  0  0  0  3  0  0  0  0  0  0
   38.2200  -45.0960   75.9690 C   0  0  0  0  0  3  0  0  0  0  0  0
   37.3580  -44.0720   76.3260 C   0  0  0  0  0  3  0  0  0  0  0  0
   36.0410  -44.0820   75.8820 C   0  0  0  0  0  3  0  0  0  0  0  0
   30.1770  -45.1240   73.2590 O   0  0  0  0  0  0  0  0  0  0  0  0
   29.4890  -43.2590   71.9840 C   0  0  0  0  0  1  0  0  0  0  0  0
   29.8960  -44.7230   71.9220 C   0  0  2  0  0  3  0  0  0  0  0  0
   28.8090  -45.6470   71.3810 C   0  0  0  0  0  0  0  0  0  0  0  0
   27.9530  -45.1510   70.6210 O   0  0  0  0  0  0  0  0  0  0  0  0
   28.8410  -46.8360   71.7530 O   0  0  0  0  0  1  0  0  0  0  0  0
  1  2  1  0  0  0  0
  2  3  2  0  0  0  0
  4  7  1  0  0  0  0
  4  3  1  0  0  0  0
  5  4  2  0  0  0  0
  6  5  1  0  0  0  0
  6  1  2  0  0  0  0
  7 12  1  0  0  0  0
  8  7  2  0  0  0  0
  8  9  1  0  0  0  0
  9 10  2  0  0  0  0
 10 11  1  0  0  0  0
 12 11  2  0  0  0  0
 13  1  1  0  0  0  0
 15 14  1  1  0  0  0
 15 13  1  0  0  0  0
 16 18  1  0  0  0  0
 16 15  1  0  0  0  0
 17 16  2  0  0  0  0
M  END
>  <MODEL>
3

>  <REMARK>
 VINA RESULT:    -5.776      3.638      7.218
 INTER + INTRA:          -7.756
 INTER:                  -7.087
 INTRA:                  -0.670
 UNBOUND:                -0.630
  Name = 
  5 active torsions:
  status: ('A' for Active; 'I' for Inactive)
    1  A    between atoms: C_1  and  C_8
    2  A    between atoms: C_2  and  C_13
    3  A    between atoms: C_8  and  C_9
    4  A    between atoms: C_8  and  O_18
    5  A    between atoms: C_10  and  O_18
                            x       y       z     vdW  Elec       q    Type
                         _______ _______ _______ _____ _____    ______ ____

>  <TORSDO>
F 4

>  <SCORE>
-5.776

>  <RMSD_LB>
3.638

>  <RMSD_UB>
7.218

$$$$
=
 OpenBabel10072112203D

 18 19  0  0  1  0  0  0  0  0999 V2000
   31.5600  -44.9070   73.7300 C   0  0  0  0  0  0  0  0  0  0  0  0
   32.5520  -45.3690   72.8660 C   0  0  0  0  0  3  0  0  0  0  0  0
   33.8680  -45.4330   73.2990 C   0  0  0  0  0  3  0  0  0  0  0  0
   34.2290  -45.0390   74.5930 C   0  0  0  0  0  0  0  0  0  0  0  0
   33.2090  -44.5770   75.4380 C   0  0  0  0  0  3  0  0  0  0  0  0
   31.8870  -44.5090   75.0240 C   0  0  0  0  0  3  0  0  0  0  0  0
   35.6430  -45.1040   75.0640 C   0  0  0  0  0  0  0  0  0  0  0  0
   36.4620  -46.2000   74.7710 C   0  0  0  0  0  3  0  0  0  0  0  0
   37.7800  -46.2450   75.2100 C   0  0  0  0  0  3  0  0  0  0  0  0
   38.3110  -45.2000   75.9400 C   0  0  0  0  0  3  0  0  0  0  0  0
   37.5180  -44.1050   76.2430 C   0  0  0  0  0  3  0  0  0  0  0  0
   36.2000  -44.0570   75.8050 C   0  0  0  0  0  3  0  0  0  0  0  0
   30.2570  -44.8460   73.2860 O   0  0  0  0  0  0  0  0  0  0  0  0
   28.9010  -43.9050   71.5980 C   0  0  0  0  0  1  0  0  0  0  0  0
   30.0080  -44.9070   71.8860 C   0  0  2  0  0  3  0  0  0  0  0  0
   29.6430  -46.3480   71.5430 C   0  0  0  0  0  0  0  0  0  0  0  0
   30.3370  -46.9340   70.6890 O   0  0  0  0  0  0  0  0  0  0  0  0
   28.6610  -46.8370   72.1330 O   0  0  0  0  0  1  0  0  0  0  0  0
  1  6  1  0  0  0  0
  2  3  1  0  0  0  0
  2  1  2  0  0  0  0
  3  4  2  0  0  0  0
  4  7  1  0  0  0  0
  4  5  1  0  0  0  0
  6  5  2  0  0  0  0
  7 12  1  0  0  0  0
  8  7  2  0  0  0  0
  8  9  1  0  0  0  0
  9 10  2  0  0  0  0
 10 11  1  0  0  0  0
 12 11  2  0  0  0  0
 13  1  1  0  0  0  0
 15 14  1  1  0  0  0
 15 13  1  0  0  0  0
 16 15  1  0  0  0  0
 16 18  1  0  0  0  0
 17 16  2  0  0  0  0
M  END
>  <MODEL>
4

>  <REMARK>
 VINA RESULT:    -5.704      3.392      7.237
 INTER + INTRA:          -7.668
 INTER:                  -7.215
 INTRA:                  -0.454
 UNBOUND:                -0.630
  Name = 
  5 active torsions:
  status: ('A' for Active; 'I' for Inactive)
    1  A    between atoms: C_1  and  C_8
    2  A    between atoms: C_2  and  C_13
    3  A    between atoms: C_8  and  C_9
    4  A    between atoms: C_8  and  O_18
    5  A    between atoms: C_10  and  O_18
                            x       y       z     vdW  Elec       q    Type
                         _______ _______ _______ _____ _____    ______ ____

>  <TORSDO>
F 4

>  <SCORE>
-5.704

>  <RMSD_LB>
3.392

>  <RMSD_UB>
7.237

$$$$
=
 OpenBabel10072112203D

 18 19  0  0  1  0  0  0  0  0999 V2000
   34.1650  -41.9580   78.9790 C   0  0  0  0  0  0  0  0  0  0  0  0
   32.9600  -41.9270   78.2780 C   0  0  0  0  0  3  0  0  0  0  0  0
   32.7450  -42.8170   77.2360 C   0  0  0  0  0  3  0  0  0  0  0  0
   33.7190  -43.7540   76.8660 C   0  0  0  0  0  0  0  0  0  0  0  0
   34.9200  -43.7590   77.5890 C   0  0  0  0  0  3  0  0  0  0  0  0
   35.1520  -42.8790   78.6350 C   0  0  0  0  0  3  0  0  0  0  0  0
   33.4940  -44.7130   75.7450 C   0  0  0  0  0  0  0  0  0  0  0  0
   32.2450  -45.3030   75.5280 C   0  0  0  0  0  3  0  0  0  0  0  0
   32.0470  -46.1900   74.4760 C   0  0  0  0  0  3  0  0  0  0  0  0
   33.0830  -46.5000   73.6170 C   0  0  0  0  0  3  0  0  0  0  0  0
   34.3290  -45.9280   73.8150 C   0  0  0  0  0  3  0  0  0  0  0  0
   34.5300  -45.0410   74.8650 C   0  0  0  0  0  3  0  0  0  0  0  0
   34.3660  -41.0660   80.0090 O   0  0  0  0  0  0  0  0  0  0  0  0
   35.9080  -39.4340   79.2790 C   0  0  0  0  0  1  0  0  0  0  0  0
   34.4680  -39.6790   79.7040 C   0  0  2  0  0  3  0  0  0  0  0  0
   34.0480  -38.9000   80.9460 C   0  0  0  0  0  0  0  0  0  0  0  0
   34.8630  -38.8240   81.8860 O   0  0  0  0  0  1  0  0  0  0  0  0
   32.9040  -38.4060   80.9420 O   0  0  0  0  0  0  0  0  0  0  0  0
  1 13  1  0  0  0  0
  2  1  2  0  0  0  0
  3  2  1  0  0  0  0
  4  3  2  0  0  0  0
  4  5  1  0  0  0  0
  5  6  2  0  0  0  0
  6  1  1  0  0  0  0
  7  4  1  0  0  0  0
  8  7  1  0  0  0  0
  9  8  2  0  0  0  0
 10 11  2  0  0  0  0
 10  9  1  0  0  0  0
 11 12  1  0  0  0  0
 12  7  2  0  0  0  0
 15 14  1  1  0  0  0
 15 13  1  0  0  0  0
 15 16  1  0  0  0  0
 16 17  1  0  0  0  0
 18 16  2  0  0  0  0
M  END
>  <MODEL>
5

>  <REMARK>
 VINA RESULT:    -5.687      4.140      5.395
 INTER + INTRA:          -7.647
 INTER:                  -7.062
 INTRA:                  -0.585
 UNBOUND:                -0.630
  Name = 
  5 active torsions:
  status: ('A' for Active; 'I' for Inactive)
    1  A    between atoms: C_1  and  C_8
    2  A    between atoms: C_2  and  C_13
    3  A    between atoms: C_8  and  C_9
    4  A    between atoms: C_8  and  O_18
    5  A    between atoms: C_10  and  O_18
                            x       y       z     vdW  Elec       q    Type
                         _______ _______ _______ _____ _____    ______ ____

>  <TORSDO>
F 4

>  <SCORE>
-5.687

>  <RMSD_LB>
4.140

>  <RMSD_UB>
5.395

$$$$
=
 OpenBabel10072112203D

 18 19  0  0  1  0  0  0  0  0999 V2000
   35.9740  -45.0950   75.6670 C   0  0  0  0  0  0  0  0  0  0  0  0
   34.8530  -44.6730   76.3790 C   0  0  0  0  0  3  0  0  0  0  0  0
   33.6080  -44.6750   75.7700 C   0  0  0  0  0  3  0  0  0  0  0  0
   33.4470  -45.0920   74.4430 C   0  0  0  0  0  0  0  0  0  0  0  0
   34.5940  -45.5100   73.7520 C   0  0  0  0  0  3  0  0  0  0  0  0
   35.8460  -45.5180   74.3460 C   0  0  0  0  0  3  0  0  0  0  0  0
   32.1090  -45.0950   73.7810 C   0  0  0  0  0  0  0  0  0  0  0  0
   31.7660  -46.0620   72.8300 C   0  0  0  0  0  3  0  0  0  0  0  0
   30.5140  -46.0570   72.2260 C   0  0  0  0  0  3  0  0  0  0  0  0
   29.5790  -45.0980   72.5600 C   0  0  0  0  0  3  0  0  0  0  0  0
   29.8980  -44.1300   73.4990 C   0  0  0  0  0  3  0  0  0  0  0  0
   31.1480  -44.1330   74.1050 C   0  0  0  0  0  3  0  0  0  0  0  0
   37.2060  -45.0850   76.2840 O   0  0  0  0  0  0  0  0  0  0  0  0
   37.2800  -42.9640   75.2490 C   0  0  0  0  0  1  0  0  0  0  0  0
   38.0620  -43.9660   76.0860 C   0  0  2  0  0  3  0  0  0  0  0  0
   39.3360  -44.4710   75.4160 C   0  0  0  0  0  0  0  0  0  0  0  0
   40.3760  -43.8000   75.5670 O   0  0  0  0  0  1  0  0  0  0  0  0
   39.2450  -45.5180   74.7460 O   0  0  0  0  0  0  0  0  0  0  0  0
  1 13  1  0  0  0  0
  1  2  1  0  0  0  0
  3  2  2  0  0  0  0
  4  3  1  0  0  0  0
  5  6  1  0  0  0  0
  5  4  2  0  0  0  0
  6  1  2  0  0  0  0
  7 12  1  0  0  0  0
  7  4  1  0  0  0  0
  8  7  2  0  0  0  0
  9 10  2  0  0  0  0
  9  8  1  0  0  0  0
 10 11  1  0  0  0  0
 11 12  2  0  0  0  0
 15 14  1  6  0  0  0
 15 13  1  0  0  0  0
 16 17  1  0  0  0  0
 16 15  1  0  0  0  0
 18 16  2  0  0  0  0
M  END
>  <MODEL>
6

>  <REMARK>
 VINA RESULT:    -5.471      1.419      2.088
 INTER + INTRA:          -7.380
 INTER:                  -7.439
 INTRA:                   0.059
 UNBOUND:                -0.630
  Name = 
  5 active torsions:
  status: ('A' for Active; 'I' for Inactive)
    1  A    between atoms: C_1  and  C_8
    2  A    between atoms: C_2  and  C_13
    3  A    between atoms: C_8  and  C_9
    4  A    between atoms: C_8  and  O_18
    5  A    between atoms: C_10  and  O_18
                            x       y       z     vdW  Elec       q    Type
                         _______ _______ _______ _____ _____    ______ ____

>  <TORSDO>
F 4

>  <SCORE>
-5.471

>  <RMSD_LB>
1.419

>  <RMSD_UB>
2.088

$$$$
=
 OpenBabel10072112203D

 18 19  0  0  1  0  0  0  0  0999 V2000
   32.2050  -44.9400   74.8360 C   0  0  0  0  0  0  0  0  0  0  0  0
   32.8500  -44.3240   75.9080 C   0  0  0  0  0  3  0  0  0  0  0  0
   34.2350  -44.3260   75.9730 C   0  0  0  0  0  3  0  0  0  0  0  0
   35.0100  -44.9390   74.9810 C   0  0  0  0  0  0  0  0  0  0  0  0
   34.3320  -45.5510   73.9160 C   0  0  0  0  0  3  0  0  0  0  0  0
   32.9490  -45.5570   73.8320 C   0  0  0  0  0  3  0  0  0  0  0  0
   36.5010  -44.9460   75.0460 C   0  0  0  0  0  0  0  0  0  0  0  0
   37.2380  -46.1080   74.7960 C   0  0  0  0  0  3  0  0  0  0  0  0
   38.6270  -46.0990   74.8550 C   0  0  0  0  0  3  0  0  0  0  0  0
   39.3080  -44.9360   75.1540 C   0  0  0  0  0  3  0  0  0  0  0  0
   38.5980  -43.7730   75.4060 C   0  0  0  0  0  3  0  0  0  0  0  0
   37.2090  -43.7790   75.3480 C   0  0  0  0  0  3  0  0  0  0  0  0
   30.8290  -44.9320   74.7860 O   0  0  0  0  0  0  0  0  0  0  0  0
   28.9170  -43.6220   75.2360 C   0  0  0  0  0  1  0  0  0  0  0  0
   30.1650  -43.7420   74.3750 C   0  0  2  0  0  3  0  0  0  0  0  0
   29.8770  -43.8660   72.8820 C   0  0  0  0  0  0  0  0  0  0  0  0
   28.9330  -44.6010   72.5320 O   0  0  0  0  0  1  0  0  0  0  0  0
   30.6220  -43.2320   72.1090 O   0  0  0  0  0  0  0  0  0  0  0  0
  1  2  1  0  0  0  0
  2  3  2  0  0  0  0
  4  7  1  0  0  0  0
  4  3  1  0  0  0  0
  5  4  2  0  0  0  0
  6  5  1  0  0  0  0
  6  1  2  0  0  0  0
  7 12  1  0  0  0  0
  8  9  1  0  0  0  0
  8  7  2  0  0  0  0
  9 10  2  0  0  0  0
 10 11  1  0  0  0  0
 12 11  2  0  0  0  0
 13  1  1  0  0  0  0
 15 13  1  0  0  0  0
 15 14  1  1  0  0  0
 16 15  1  0  0  0  0
 17 16  1  0  0  0  0
 18 16  2  0  0  0  0
M  END
>  <MODEL>
7

>  <REMARK>
 VINA RESULT:    -5.403      3.045      6.864
 INTER + INTRA:          -7.297
 INTER:                  -6.666
 INTRA:                  -0.631
 UNBOUND:                -0.630
  Name = 
  5 active torsions:
  status: ('A' for Active; 'I' for Inactive)
    1  A    between atoms: C_1  and  C_8
    2  A    between atoms: C_2  and  C_13
    3  A    between atoms: C_8  and  C_9
    4  A    between atoms: C_8  and  O_18
    5  A    between atoms: C_10  and  O_18
                            x       y       z     vdW  Elec       q    Type
                         _______ _______ _______ _____ _____    ______ ____

>  <TORSDO>
F 4

>  <SCORE>
-5.403

>  <RMSD_LB>
3.045

>  <RMSD_UB>
6.864

$$$$
=
 OpenBabel10072112203D

 18 19  0  0  1  0  0  0  0  0999 V2000
   35.9080  -42.1750   77.1210 C   0  0  0  0  0  0  0  0  0  0  0  0
   36.1040  -40.8030   77.2650 C   0  0  0  0  0  3  0  0  0  0  0  0
   35.5590  -40.1390   78.3540 C   0  0  0  0  0  3  0  0  0  0  0  0
   34.8080  -40.8200   79.3210 C   0  0  0  0  0  0  0  0  0  0  0  0
   34.6280  -42.1990   79.1470 C   0  0  0  0  0  3  0  0  0  0  0  0
   35.1680  -42.8810   78.0670 C   0  0  0  0  0  3  0  0  0  0  0  0
   34.2170  -40.1110   80.4930 C   0  0  0  0  0  0  0  0  0  0  0  0
   35.0050  -39.3380   81.3530 C   0  0  0  0  0  3  0  0  0  0  0  0
   34.4420  -38.6780   82.4390 C   0  0  0  0  0  3  0  0  0  0  0  0
   33.0860  -38.7660   82.6850 C   0  0  0  0  0  3  0  0  0  0  0  0
   32.2870  -39.5260   81.8470 C   0  0  0  0  0  3  0  0  0  0  0  0
   32.8470  -40.1870   80.7610 C   0  0  0  0  0  3  0  0  0  0  0  0
   36.4530  -42.8210   76.0330 O   0  0  0  0  0  0  0  0  0  0  0  0
   38.2800  -44.3170   76.0440 C   0  0  0  0  0  1  0  0  0  0  0  0
   36.7660  -44.2050   76.1440 C   0  0  2  0  0  3  0  0  0  0  0  0
   36.0160  -44.9380   75.0360 C   0  0  0  0  0  0  0  0  0  0  0  0
   35.0570  -44.3510   74.4980 O   0  0  0  0  0  0  0  0  0  0  0  0
   36.4060  -46.0880   74.7560 O   0  0  0  0  0  1  0  0  0  0  0  0
  1  2  2  0  0  0  0
  1  6  1  0  0  0  0
  2  3  1  0  0  0  0
  3  4  2  0  0  0  0
  4  7  1  0  0  0  0
  5  4  1  0  0  0  0
  6  5  2  0  0  0  0
  7 12  2  0  0  0  0
  7  8  1  0  0  0  0
  8  9  2  0  0  0  0
  9 10  1  0  0  0  0
 11 10  2  0  0  0  0
 12 11  1  0  0  0  0
 13 15  1  0  0  0  0
 13  1  1  0  0  0  0
 15 14  1  6  0  0  0
 16 15  1  0  0  0  0
 17 16  2  0  0  0  0
 18 16  1  0  0  0  0
M  END
>  <MODEL>
8

>  <REMARK>
 VINA RESULT:    -5.147      4.998      7.637
 INTER + INTRA:          -6.981
 INTER:                  -6.348
 INTRA:                  -0.633
 UNBOUND:                -0.630
  Name = 
  5 active torsions:
  status: ('A' for Active; 'I' for Inactive)
    1  A    between atoms: C_1  and  C_8
    2  A    between atoms: C_2  and  C_13
    3  A    between atoms: C_8  and  C_9
    4  A    between atoms: C_8  and  O_18
    5  A    between atoms: C_10  and  O_18
                            x       y       z     vdW  Elec       q    Type
                         _______ _______ _______ _____ _____    ______ ____

>  <TORSDO>
F 4

>  <SCORE>
-5.147

>  <RMSD_LB>
4.998

>  <RMSD_UB>
7.637

$$$$
=
 OpenBabel10072112203D

 18 19  0  0  1  0  0  0  0  0999 V2000
   30.1000  -45.2800   72.5620 C   0  0  0  0  0  0  0  0  0  0  0  0
   30.2960  -44.3210   73.5550 C   0  0  0  0  0  3  0  0  0  0  0  0
   31.5040  -44.2670   74.2340 C   0  0  0  0  0  3  0  0  0  0  0  0
   32.5420  -45.1630   73.9450 C   0  0  0  0  0  0  0  0  0  0  0  0
   32.3130  -46.1170   72.9430 C   0  0  0  0  0  3  0  0  0  0  0  0
   31.1130  -46.1830   72.2510 C   0  0  0  0  0  3  0  0  0  0  0  0
   33.8430  -45.1120   74.6730 C   0  0  0  0  0  0  0  0  0  0  0  0
   35.0230  -45.5930   74.0960 C   0  0  0  0  0  3  0  0  0  0  0  0
   36.2300  -45.5340   74.7830 C   0  0  0  0  0  3  0  0  0  0  0  0
   36.2890  -44.9880   76.0500 C   0  0  0  0  0  3  0  0  0  0  0  0
   35.1320  -44.5060   76.6410 C   0  0  0  0  0  3  0  0  0  0  0  0
   33.9240  -44.5640   75.9570 C   0  0  0  0  0  3  0  0  0  0  0  0
   28.8940  -45.3220   71.8980 O   0  0  0  0  0  0  0  0  0  0  0  0
   27.1190  -43.7900   71.6270 C   0  0  0  0  0  1  0  0  0  0  0  0
   28.4970  -44.1950   71.1270 C   0  0  2  0  0  3  0  0  0  0  0  0
   28.5260  -44.6060   69.6580 C   0  0  0  0  0  0  0  0  0  0  0  0
   28.2870  -43.7280   68.8050 O   0  0  0  0  0  0  0  0  0  0  0  0
   28.7720  -45.8030   69.4110 O   0  0  0  0  0  1  0  0  0  0  0  0
  1  2  1  0  0  0  0
  2  3  2  0  0  0  0
  4  3  1  0  0  0  0
  4  7  1  0  0  0  0
  5  4  2  0  0  0  0
  6  1  2  0  0  0  0
  6  5  1  0  0  0  0
  7 12  1  0  0  0  0
  8  7  2  0  0  0  0
  8  9  1  0  0  0  0
  9 10  2  0  0  0  0
 10 11  1  0  0  0  0
 12 11  2  0  0  0  0
 13  1  1  0  0  0  0
 15 14  1  1  0  0  0
 15 13  1  0  0  0  0
 16 15  1  0  0  0  0
 17 16  2  0  0  0  0
 18 16  1  0  0  0  0
M  END
>  <MODEL>
9

>  <REMARK>
 VINA RESULT:    -5.051      4.176      7.409
 INTER + INTRA:          -6.862
 INTER:                  -6.232
 INTRA:                  -0.630
 UNBOUND:                -0.630
  Name = 
  5 active torsions:
  status: ('A' for Active; 'I' for Inactive)
    1  A    between atoms: C_1  and  C_8
    2  A    between atoms: C_2  and  C_13
    3  A    between atoms: C_8  and  C_9
    4  A    between atoms: C_8  and  O_18
    5  A    between atoms: C_10  and  O_18
                            x       y       z     vdW  Elec       q    Type
                         _______ _______ _______ _____ _____    ______ ____

>  <TORSDO>
F 4

>  <SCORE>
-5.051

>  <RMSD_LB>
4.176

>  <RMSD_UB>
7.409

$$$$
