=
 OpenBabel10062110143D

 16 16  0  0  0  0  0  0  0  0999 V2000
   30.6880  -43.6470   76.1600 C   0  0  0  0  0  1  0  0  0  0  0  0
   35.0990  -42.7190   78.3890 C   0  0  0  0  0  1  0  0  0  0  0  0
   32.1900  -43.8150   76.1920 C   0  0  0  0  0  0  0  0  0  0  0  0
   32.9510  -43.2420   77.2020 C   0  0  0  0  0  3  0  0  0  0  0  0
   34.3370  -43.3710   77.2590 C   0  0  0  0  0  0  0  0  0  0  0  0
   34.9640  -44.1110   76.2440 C   0  0  0  0  0  0  0  0  0  0  0  0
   34.2290  -44.6990   75.2030 C   0  0  0  0  0  0  0  0  0  0  0  0
   32.8470  -44.5310   75.2030 C   0  0  0  0  0  3  0  0  0  0  0  0
   34.8800  -45.4870   74.0990 C   0  0  0  0  0  1  0  0  0  0  0  0
   37.2580  -43.5040   75.5680 C   0  0  0  0  0  0  0  0  0  0  0  0
   36.3880  -44.2660   76.2550 N   0  0  0  0  0  0  0  0  0  0  0  0
   37.0040  -42.4120   75.0750 O   0  0  0  0  0  0  0  0  0  0  0  0
   36.7600  -44.9900   76.8090 H   0  0  0  0  0  0  0  0  0  0  0  0
   38.6320  -44.0840   75.3750 C   0  0  0  0  0  2  0  0  0  0  0  0
   38.5950  -46.2390   74.4360 C   0  0  0  0  0  1  0  0  0  0  0  0
   38.7500  -44.8420   74.1980 O   0  0  0  0  0  0  0  0  0  0  0  0
  1  3  1  0  0  0  0
  3  4  1  0  0  0  0
  4  5  2  0  0  0  0
  5  2  1  0  0  0  0
  6 11  1  0  0  0  0
  6  5  1  0  0  0  0
  7  8  1  0  0  0  0
  7  6  2  0  0  0  0
  8  3  2  0  0  0  0
  9  7  1  0  0  0  0
 10 11  1  0  0  0  0
 11 13  1  0  0  0  0
 12 10  2  0  0  0  0
 14 10  1  0  0  0  0
 16 15  1  0  0  0  0
 16 14  1  0  0  0  0
M  END
>  <MODEL>
1

>  <REMARK>
 VINA RESULT:    -4.834      0.000      0.000
 INTER + INTRA:          -5.956
 INTER:                  -5.715
 INTRA:                  -0.241
 UNBOUND:                -0.275
  Name = 
  7 active torsions:
  status: ('A' for Active; 'I' for Inactive)
    1  A    between atoms: C_1  and  C_5
    2  A    between atoms: C_2  and  C_12
    3  A    between atoms: C_2  and  O_15
    4  A    between atoms: C_3  and  O_15
    5  A    between atoms: C_4  and  C_7
    6  A    between atoms: C_8  and  N_13
    7  A    between atoms: C_9  and  C_11
                            x       y       z     vdW  Elec       q    Type
                         _______ _______ _______ _____ _____    ______ ____

>  <TORSDO>
F 3

>  <SCORE>
-4.834

>  <RMSD_LB>
0.000

>  <RMSD_UB>
0.000

$$$$
=
 OpenBabel10062110143D

 16 16  0  0  0  0  0  0  0  0999 V2000
   30.5830  -43.6500   75.8850 C   0  0  0  0  0  1  0  0  0  0  0  0
   34.8630  -45.5310   74.0310 C   0  0  0  0  0  1  0  0  0  0  0  0
   32.0820  -43.8170   75.9860 C   0  0  0  0  0  0  0  0  0  0  0  0
   32.7850  -44.5450   75.0360 C   0  0  0  0  0  3  0  0  0  0  0  0
   34.1650  -44.7250   75.1020 C   0  0  0  0  0  0  0  0  0  0  0  0
   34.8470  -44.1380   76.1800 C   0  0  0  0  0  0  0  0  0  0  0  0
   34.1690  -43.4000   77.1630 C   0  0  0  0  0  0  0  0  0  0  0  0
   32.7900  -43.2610   77.0400 C   0  0  0  0  0  3  0  0  0  0  0  0
   34.8770  -42.7730   78.3330 C   0  0  0  0  0  1  0  0  0  0  0  0
   37.1870  -43.5560   75.6580 C   0  0  0  0  0  0  0  0  0  0  0  0
   36.2650  -44.3000   76.2960 N   0  0  0  0  0  0  0  0  0  0  0  0
   36.9760  -42.4740   75.1260 O   0  0  0  0  0  0  0  0  0  0  0  0
   36.5920  -45.0130   76.8900 H   0  0  0  0  0  0  0  0  0  0  0  0
   38.5680  -44.1470   75.5770 C   0  0  0  0  0  2  0  0  0  0  0  0
   38.5480  -46.2240   74.4750 C   0  0  0  0  0  1  0  0  0  0  0  0
   38.8070  -44.8260   74.3700 O   0  0  0  0  0  0  0  0  0  0  0  0
  1  3  1  0  0  0  0
  2  5  1  0  0  0  0
  3  8  1  0  0  0  0
  4  5  1  0  0  0  0
  4  3  2  0  0  0  0
  5  6  2  0  0  0  0
  6 11  1  0  0  0  0
  6  7  1  0  0  0  0
  7  9  1  0  0  0  0
  8  7  2  0  0  0  0
 10 11  1  0  0  0  0
 11 13  1  0  0  0  0
 12 10  2  0  0  0  0
 14 10  1  0  0  0  0
 16 15  1  0  0  0  0
 16 14  1  0  0  0  0
M  END
>  <MODEL>
2

>  <REMARK>
 VINA RESULT:    -4.828      0.180      2.251
 INTER + INTRA:          -5.950
 INTER:                  -5.695
 INTRA:                  -0.255
 UNBOUND:                -0.275
  Name = 
  7 active torsions:
  status: ('A' for Active; 'I' for Inactive)
    1  A    between atoms: C_1  and  C_5
    2  A    between atoms: C_2  and  C_12
    3  A    between atoms: C_2  and  O_15
    4  A    between atoms: C_3  and  O_15
    5  A    between atoms: C_4  and  C_7
    6  A    between atoms: C_8  and  N_13
    7  A    between atoms: C_9  and  C_11
                            x       y       z     vdW  Elec       q    Type
                         _______ _______ _______ _____ _____    ______ ____

>  <TORSDO>
F 3

>  <SCORE>
-4.828

>  <RMSD_LB>
0.180

>  <RMSD_UB>
2.251

$$$$
=
 OpenBabel10062110143D

 16 16  0  0  0  0  0  0  0  0999 V2000
   38.0310  -46.2430   74.8190 C   0  0  0  0  0  1  0  0  0  0  0  0
   33.2970  -45.5270   73.2820 C   0  0  0  0  0  1  0  0  0  0  0  0
   36.6560  -45.6660   75.0670 C   0  0  0  0  0  0  0  0  0  0  0  0
   35.6350  -45.8310   74.1410 C   0  0  0  0  0  3  0  0  0  0  0  0
   34.3580  -45.3080   74.3340 C   0  0  0  0  0  0  0  0  0  0  0  0
   34.1220  -44.5890   75.5170 C   0  0  0  0  0  0  0  0  0  0  0  0
   35.1310  -44.3960   76.4730 C   0  0  0  0  0  0  0  0  0  0  0  0
   36.3860  -44.9430   76.2180 C   0  0  0  0  0  3  0  0  0  0  0  0
   34.9050  -43.6200   77.7420 C   0  0  0  0  0  1  0  0  0  0  0  0
   31.7430  -44.7120   76.1600 C   0  0  0  0  0  0  0  0  0  0  0  0
   32.8280  -44.0250   75.7590 N   0  0  0  0  0  0  0  0  0  0  0  0
   31.7590  -45.8350   76.6480 O   0  0  0  0  0  0  0  0  0  0  0  0
   32.7230  -43.0560   75.6200 H   0  0  0  0  0  0  0  0  0  0  0  0
   30.4180  -44.0350   75.9430 C   0  0  0  0  0  2  0  0  0  0  0  0
   29.8080  -44.0400   73.6720 C   0  0  0  0  0  1  0  0  0  0  0  0
   30.3670  -43.2940   74.7500 O   0  0  0  0  0  0  0  0  0  0  0  0
  1  3  1  0  0  0  0
  2  5  1  0  0  0  0
  3  8  1  0  0  0  0
  4  5  1  0  0  0  0
  4  3  2  0  0  0  0
  5  6  2  0  0  0  0
  6 11  1  0  0  0  0
  6  7  1  0  0  0  0
  7  9  1  0  0  0  0
  8  7  2  0  0  0  0
 10 12  2  0  0  0  0
 11 10  1  0  0  0  0
 13 11  1  0  0  0  0
 14 10  1  0  0  0  0
 15 16  1  0  0  0  0
 16 14  1  0  0  0  0
M  END
>  <MODEL>
3

>  <REMARK>
 VINA RESULT:    -4.806      2.937      5.800
 INTER + INTRA:          -5.923
 INTER:                  -5.653
 INTRA:                  -0.271
 UNBOUND:                -0.275
  Name = 
  7 active torsions:
  status: ('A' for Active; 'I' for Inactive)
    1  A    between atoms: C_1  and  C_5
    2  A    between atoms: C_2  and  C_12
    3  A    between atoms: C_2  and  O_15
    4  A    between atoms: C_3  and  O_15
    5  A    between atoms: C_4  and  C_7
    6  A    between atoms: C_8  and  N_13
    7  A    between atoms: C_9  and  C_11
                            x       y       z     vdW  Elec       q    Type
                         _______ _______ _______ _____ _____    ______ ____

>  <TORSDO>
F 3

>  <SCORE>
-4.806

>  <RMSD_LB>
2.937

>  <RMSD_UB>
5.800

$$$$
=
 OpenBabel10062110143D

 16 16  0  0  0  0  0  0  0  0999 V2000
   38.0140  -46.2300   74.8160 C   0  0  0  0  0  1  0  0  0  0  0  0
   34.9090  -43.5940   77.7650 C   0  0  0  0  0  1  0  0  0  0  0  0
   36.6470  -45.6330   75.0620 C   0  0  0  0  0  0  0  0  0  0  0  0
   36.3780  -44.9170   76.2200 C   0  0  0  0  0  3  0  0  0  0  0  0
   35.1290  -44.3600   76.4820 C   0  0  0  0  0  0  0  0  0  0  0  0
   34.1200  -44.5440   75.5220 C   0  0  0  0  0  0  0  0  0  0  0  0
   34.3530  -45.2670   74.3420 C   0  0  0  0  0  0  0  0  0  0  0  0
   35.6230  -45.8010   74.1420 C   0  0  0  0  0  3  0  0  0  0  0  0
   33.2850  -45.4870   73.3050 C   0  0  0  0  0  1  0  0  0  0  0  0
   31.7440  -44.6900   76.1700 C   0  0  0  0  0  0  0  0  0  0  0  0
   32.8170  -43.9950   75.7480 N   0  0  0  0  0  0  0  0  0  0  0  0
   31.7800  -45.7970   76.6920 O   0  0  0  0  0  0  0  0  0  0  0  0
   32.6950  -43.0330   75.5800 H   0  0  0  0  0  0  0  0  0  0  0  0
   30.4070  -44.0430   75.9340 C   0  0  0  0  0  2  0  0  0  0  0  0
   29.8190  -44.0940   73.6580 C   0  0  0  0  0  1  0  0  0  0  0  0
   30.3500  -43.3190   74.7300 O   0  0  0  0  0  0  0  0  0  0  0  0
  1  3  1  0  0  0  0
  3  4  1  0  0  0  0
  4  5  2  0  0  0  0
  5  2  1  0  0  0  0
  6 11  1  0  0  0  0
  6  5  1  0  0  0  0
  7  6  2  0  0  0  0
  8  7  1  0  0  0  0
  8  3  2  0  0  0  0
  9  7  1  0  0  0  0
 10 12  2  0  0  0  0
 11 10  1  0  0  0  0
 13 11  1  0  0  0  0
 14 10  1  0  0  0  0
 15 16  1  0  0  0  0
 16 14  1  0  0  0  0
M  END
>  <MODEL>
4

>  <REMARK>
 VINA RESULT:    -4.784      2.931      5.364
 INTER + INTRA:          -5.898
 INTER:                  -5.636
 INTRA:                  -0.262
 UNBOUND:                -0.275
  Name = 
  7 active torsions:
  status: ('A' for Active; 'I' for Inactive)
    1  A    between atoms: C_1  and  C_5
    2  A    between atoms: C_2  and  C_12
    3  A    between atoms: C_2  and  O_15
    4  A    between atoms: C_3  and  O_15
    5  A    between atoms: C_4  and  C_7
    6  A    between atoms: C_8  and  N_13
    7  A    between atoms: C_9  and  C_11
                            x       y       z     vdW  Elec       q    Type
                         _______ _______ _______ _____ _____    ______ ____

>  <TORSDO>
F 3

>  <SCORE>
-4.784

>  <RMSD_LB>
2.931

>  <RMSD_UB>
5.364

$$$$
=
 OpenBabel10062110143D

 16 16  0  0  0  0  0  0  0  0999 V2000
   31.8800  -45.8440   72.2270 C   0  0  0  0  0  1  0  0  0  0  0  0
   30.9270  -44.4380   76.9600 C   0  0  0  0  0  1  0  0  0  0  0  0
   32.3880  -45.4070   73.5820 C   0  0  0  0  0  0  0  0  0  0  0  0
   31.5090  -45.1320   74.6200 C   0  0  0  0  0  3  0  0  0  0  0  0
   31.9420  -44.7200   75.8780 C   0  0  0  0  0  0  0  0  0  0  0  0
   33.3260  -44.5850   76.0780 C   0  0  0  0  0  0  0  0  0  0  0  0
   34.2450  -44.8480   75.0510 C   0  0  0  0  0  0  0  0  0  0  0  0
   33.7470  -45.2530   73.8150 C   0  0  0  0  0  3  0  0  0  0  0  0
   35.7300  -44.6990   75.2380 C   0  0  0  0  0  1  0  0  0  0  0  0
   33.9310  -42.8790   77.7550 C   0  0  0  0  0  0  0  0  0  0  0  0
   33.8210  -44.1580   77.3530 N   0  0  0  0  0  0  0  0  0  0  0  0
   33.3730  -41.9240   77.2310 O   0  0  0  0  0  0  0  0  0  0  0  0
   34.1040  -44.8570   77.9860 H   0  0  0  0  0  0  0  0  0  0  0  0
   34.8500  -42.6330   78.9190 C   0  0  0  0  0  2  0  0  0  0  0  0
   35.4760  -40.4910   79.6610 C   0  0  0  0  0  1  0  0  0  0  0  0
   34.4820  -41.5120   79.6840 O   0  0  0  0  0  0  0  0  0  0  0  0
  1  3  1  0  0  0  0
  3  8  2  0  0  0  0
  3  4  1  0  0  0  0
  4  5  2  0  0  0  0
  5  6  1  0  0  0  0
  5  2  1  0  0  0  0
  6 11  1  0  0  0  0
  7  9  1  0  0  0  0
  7  6  2  0  0  0  0
  8  7  1  0  0  0  0
 10 14  1  0  0  0  0
 11 10  1  0  0  0  0
 11 13  1  0  0  0  0
 12 10  2  0  0  0  0
 14 16  1  0  0  0  0
 15 16  1  0  0  0  0
M  END
>  <MODEL>
5

>  <REMARK>
 VINA RESULT:    -4.613      2.652      4.357
 INTER + INTRA:          -5.697
 INTER:                  -5.519
 INTRA:                  -0.178
 UNBOUND:                -0.275
  Name = 
  7 active torsions:
  status: ('A' for Active; 'I' for Inactive)
    1  A    between atoms: C_1  and  C_5
    2  A    between atoms: C_2  and  C_12
    3  A    between atoms: C_2  and  O_15
    4  A    between atoms: C_3  and  O_15
    5  A    between atoms: C_4  and  C_7
    6  A    between atoms: C_8  and  N_13
    7  A    between atoms: C_9  and  C_11
                            x       y       z     vdW  Elec       q    Type
                         _______ _______ _______ _____ _____    ______ ____

>  <TORSDO>
F 3

>  <SCORE>
-4.613

>  <RMSD_LB>
2.652

>  <RMSD_UB>
4.357

$$$$
=
 OpenBabel10062110143D

 16 16  0  0  0  0  0  0  0  0999 V2000
   35.6120  -45.6390   74.5670 C   0  0  0  0  0  1  0  0  0  0  0  0
   31.3860  -46.2420   71.9080 C   0  0  0  0  0  1  0  0  0  0  0  0
   34.1490  -45.3230   74.3610 C   0  0  0  0  0  0  0  0  0  0  0  0
   33.4400  -45.8770   73.3040 C   0  0  0  0  0  3  0  0  0  0  0  0
   32.0930  -45.6020   73.0800 C   0  0  0  0  0  0  0  0  0  0  0  0
   31.4510  -44.7270   73.9710 C   0  0  0  0  0  0  0  0  0  0  0  0
   32.1360  -44.1420   75.0480 C   0  0  0  0  0  0  0  0  0  0  0  0
   33.4820  -44.4560   75.2140 C   0  0  0  0  0  3  0  0  0  0  0  0
   31.4720  -43.1930   76.0080 C   0  0  0  0  0  1  0  0  0  0  0  0
   29.5990  -43.4300   72.9830 C   0  0  0  0  0  0  0  0  0  0  0  0
   30.0680  -44.4080   73.7800 N   0  0  0  0  0  0  0  0  0  0  0  0
   30.2370  -42.8720   72.1000 O   0  0  0  0  0  0  0  0  0  0  0  0
   29.4060  -44.9460   74.2730 H   0  0  0  0  0  0  0  0  0  0  0  0
   28.1870  -42.9860   73.2480 C   0  0  0  0  0  2  0  0  0  0  0  0
   28.1140  -41.3770   74.9610 C   0  0  0  0  0  1  0  0  0  0  0  0
   27.9300  -42.7460   74.6090 O   0  0  0  0  0  0  0  0  0  0  0  0
  2  5  1  0  0  0  0
  3  1  1  0  0  0  0
  3  8  1  0  0  0  0
  4  3  2  0  0  0  0
  5  4  1  0  0  0  0
  5  6  2  0  0  0  0
  6  7  1  0  0  0  0
  7  8  2  0  0  0  0
  7  9  1  0  0  0  0
 10 14  1  0  0  0  0
 10 11  1  0  0  0  0
 11  6  1  0  0  0  0
 11 13  1  0  0  0  0
 12 10  2  0  0  0  0
 14 16  1  0  0  0  0
 16 15  1  0  0  0  0
M  END
>  <MODEL>
6

>  <REMARK>
 VINA RESULT:    -4.230      4.124      7.016
 INTER + INTRA:          -5.246
 INTER:                  -4.950
 INTRA:                  -0.296
 UNBOUND:                -0.275
  Name = 
  7 active torsions:
  status: ('A' for Active; 'I' for Inactive)
    1  A    between atoms: C_1  and  C_5
    2  A    between atoms: C_2  and  C_12
    3  A    between atoms: C_2  and  O_15
    4  A    between atoms: C_3  and  O_15
    5  A    between atoms: C_4  and  C_7
    6  A    between atoms: C_8  and  N_13
    7  A    between atoms: C_9  and  C_11
                            x       y       z     vdW  Elec       q    Type
                         _______ _______ _______ _____ _____    ______ ____

>  <TORSDO>
F 3

>  <SCORE>
-4.230

>  <RMSD_LB>
4.124

>  <RMSD_UB>
7.016

$$$$
=
 OpenBabel10062110143D

 16 16  0  0  0  0  0  0  0  0999 V2000
   32.1480  -42.7940   77.0630 C   0  0  0  0  0  1  0  0  0  0  0  0
   33.2240  -46.2440   73.5660 C   0  0  0  0  0  1  0  0  0  0  0  0
   31.7530  -43.5460   75.8130 C   0  0  0  0  0  0  0  0  0  0  0  0
   32.5910  -44.5060   75.2620 C   0  0  0  0  0  3  0  0  0  0  0  0
   32.2610  -45.2140   74.1090 C   0  0  0  0  0  0  0  0  0  0  0  0
   31.0300  -44.9250   73.4980 C   0  0  0  0  0  0  0  0  0  0  0  0
   30.1600  -43.9570   74.0210 C   0  0  0  0  0  0  0  0  0  0  0  0
   30.5500  -43.2830   75.1760 C   0  0  0  0  0  3  0  0  0  0  0  0
   28.8420  -43.6220   73.3780 C   0  0  0  0  0  1  0  0  0  0  0  0
   30.9400  -45.2310   71.0510 C   0  0  0  0  0  0  0  0  0  0  0  0
   30.6490  -45.6210   72.3050 N   0  0  0  0  0  0  0  0  0  0  0  0
   31.7970  -44.4100   70.7480 O   0  0  0  0  0  0  0  0  0  0  0  0
   30.1310  -46.4510   72.4120 H   0  0  0  0  0  0  0  0  0  0  0  0
   30.1050  -45.8420   69.9610 C   0  0  0  0  0  2  0  0  0  0  0  0
   28.1150  -47.0220   69.5390 C   0  0  0  0  0  1  0  0  0  0  0  0
   29.2030  -46.8110   70.4350 O   0  0  0  0  0  0  0  0  0  0  0  0
  2  5  1  0  0  0  0
  3  1  1  0  0  0  0
  4  3  1  0  0  0  0
  5  4  2  0  0  0  0
  6  7  2  0  0  0  0
  6  5  1  0  0  0  0
  7  8  1  0  0  0  0
  8  3  2  0  0  0  0
  9  7  1  0  0  0  0
 10 11  1  0  0  0  0
 11 13  1  0  0  0  0
 11  6  1  0  0  0  0
 12 10  2  0  0  0  0
 14 16  1  0  0  0  0
 14 10  1  0  0  0  0
 15 16  1  0  0  0  0
M  END
>  <MODEL>
7

>  <REMARK>
 VINA RESULT:    -4.094      4.839      6.674
 INTER + INTRA:          -5.086
 INTER:                  -4.861
 INTRA:                  -0.226
 UNBOUND:                -0.275
  Name = 
  7 active torsions:
  status: ('A' for Active; 'I' for Inactive)
    1  A    between atoms: C_1  and  C_5
    2  A    between atoms: C_2  and  C_12
    3  A    between atoms: C_2  and  O_15
    4  A    between atoms: C_3  and  O_15
    5  A    between atoms: C_4  and  C_7
    6  A    between atoms: C_8  and  N_13
    7  A    between atoms: C_9  and  C_11
                            x       y       z     vdW  Elec       q    Type
                         _______ _______ _______ _____ _____    ______ ____

>  <TORSDO>
F 3

>  <SCORE>
-4.094

>  <RMSD_LB>
4.839

>  <RMSD_UB>
6.674

$$$$
=
 OpenBabel10062110143D

 16 16  0  0  0  0  0  0  0  0999 V2000
   34.7070  -45.6650   74.0960 C   0  0  0  0  0  1  0  0  0  0  0  0
   31.2430  -44.2320   70.7450 C   0  0  0  0  0  1  0  0  0  0  0  0
   33.3360  -45.1040   73.8030 C   0  0  0  0  0  0  0  0  0  0  0  0
   32.9010  -44.9230   72.4970 C   0  0  0  0  0  3  0  0  0  0  0  0
   31.6470  -44.4020   72.1910 C   0  0  0  0  0  0  0  0  0  0  0  0
   30.8080  -44.0530   73.2620 C   0  0  0  0  0  0  0  0  0  0  0  0
   31.2140  -44.2160   74.5960 C   0  0  0  0  0  0  0  0  0  0  0  0
   32.4820  -44.7390   74.8340 C   0  0  0  0  0  3  0  0  0  0  0  0
   30.3380  -43.8380   75.7590 C   0  0  0  0  0  1  0  0  0  0  0  0
   28.4270  -44.2170   72.6360 C   0  0  0  0  0  0  0  0  0  0  0  0
   29.5100  -43.5070   72.9990 N   0  0  0  0  0  0  0  0  0  0  0  0
   28.3050  -45.4300   72.7540 O   0  0  0  0  0  0  0  0  0  0  0  0
   29.4020  -42.5330   73.0910 H   0  0  0  0  0  0  0  0  0  0  0  0
   27.3090  -43.4350   72.0040 C   0  0  0  0  0  2  0  0  0  0  0  0
   27.6560  -43.4470   69.6790 C   0  0  0  0  0  1  0  0  0  0  0  0
   26.8960  -43.9630   70.7690 O   0  0  0  0  0  0  0  0  0  0  0  0
  2  5  1  0  0  0  0
  3  1  1  0  0  0  0
  3  8  1  0  0  0  0
  4  3  2  0  0  0  0
  5  4  1  0  0  0  0
  5  6  2  0  0  0  0
  6  7  1  0  0  0  0
  7  8  2  0  0  0  0
  7  9  1  0  0  0  0
 10 12  2  0  0  0  0
 10 11  1  0  0  0  0
 11 13  1  0  0  0  0
 11  6  1  0  0  0  0
 14 10  1  0  0  0  0
 15 16  1  0  0  0  0
 16 14  1  0  0  0  0
M  END
>  <MODEL>
8

>  <REMARK>
 VINA RESULT:    -3.687      5.316      7.784
 INTER + INTRA:          -4.608
 INTER:                  -4.338
 INTRA:                  -0.270
 UNBOUND:                -0.275
  Name = 
  7 active torsions:
  status: ('A' for Active; 'I' for Inactive)
    1  A    between atoms: C_1  and  C_5
    2  A    between atoms: C_2  and  C_12
    3  A    between atoms: C_2  and  O_15
    4  A    between atoms: C_3  and  O_15
    5  A    between atoms: C_4  and  C_7
    6  A    between atoms: C_8  and  N_13
    7  A    between atoms: C_9  and  C_11
                            x       y       z     vdW  Elec       q    Type
                         _______ _______ _______ _____ _____    ______ ____

>  <TORSDO>
F 3

>  <SCORE>
-3.687

>  <RMSD_LB>
5.316

>  <RMSD_UB>
7.784

$$$$
=
 OpenBabel10062110143D

 16 16  0  0  0  0  0  0  0  0999 V2000
   35.4200  -39.0980   81.5590 C   0  0  0  0  0  1  0  0  0  0  0  0
   34.6830  -42.6380   78.0640 C   0  0  0  0  0  1  0  0  0  0  0  0
   34.5650  -39.6800   80.4570 C   0  0  0  0  0  0  0  0  0  0  0  0
   34.9550  -40.8280   79.7810 C   0  0  0  0  0  3  0  0  0  0  0  0
   34.1950  -41.3870   78.7560 C   0  0  0  0  0  0  0  0  0  0  0  0
   32.9940  -40.7460   78.4120 C   0  0  0  0  0  0  0  0  0  0  0  0
   32.5700  -39.5800   79.0690 C   0  0  0  0  0  0  0  0  0  0  0  0
   33.3770  -39.0710   80.0830 C   0  0  0  0  0  3  0  0  0  0  0  0
   31.2930  -38.8700   78.7100 C   0  0  0  0  0  1  0  0  0  0  0  0
   31.1980  -42.1840   77.5200 C   0  0  0  0  0  0  0  0  0  0  0  0
   32.1800  -41.2780   77.3610 N   0  0  0  0  0  0  0  0  0  0  0  0
   30.6650  -42.4670   78.5850 O   0  0  0  0  0  0  0  0  0  0  0  0
   32.3540  -40.9560   76.4470 H   0  0  0  0  0  0  0  0  0  0  0  0
   30.7690  -42.9150   76.2780 C   0  0  0  0  0  2  0  0  0  0  0  0
   32.2400  -44.2970   75.0720 C   0  0  0  0  0  1  0  0  0  0  0  0
   31.7730  -42.9690   75.2960 O   0  0  0  0  0  0  0  0  0  0  0  0
  2  5  1  0  0  0  0
  3  1  1  0  0  0  0
  4  3  2  0  0  0  0
  5  4  1  0  0  0  0
  6  5  2  0  0  0  0
  6  7  1  0  0  0  0
  7  8  2  0  0  0  0
  8  3  1  0  0  0  0
  9  7  1  0  0  0  0
 10 12  2  0  0  0  0
 11 10  1  0  0  0  0
 11  6  1  0  0  0  0
 13 11  1  0  0  0  0
 14 10  1  0  0  0  0
 15 16  1  0  0  0  0
 16 14  1  0  0  0  0
M  END
>  <MODEL>
9

>  <REMARK>
 VINA RESULT:    -3.653      3.887      6.410
 INTER + INTRA:          -4.569
 INTER:                  -4.294
 INTRA:                  -0.275
 UNBOUND:                -0.275
  Name = 
  7 active torsions:
  status: ('A' for Active; 'I' for Inactive)
    1  A    between atoms: C_1  and  C_5
    2  A    between atoms: C_2  and  C_12
    3  A    between atoms: C_2  and  O_15
    4  A    between atoms: C_3  and  O_15
    5  A    between atoms: C_4  and  C_7
    6  A    between atoms: C_8  and  N_13
    7  A    between atoms: C_9  and  C_11
                            x       y       z     vdW  Elec       q    Type
                         _______ _______ _______ _____ _____    ______ ____

>  <TORSDO>
F 3

>  <SCORE>
-3.653

>  <RMSD_LB>
3.887

>  <RMSD_UB>
6.410

$$$$
