
     RDKit          3D

 12 12  0  0  0  0  0  0  0  0999 V2000
   -2.5056    0.1436   -0.0333 C   0  0  0  0  0  0  0  0  0  0  0  0
   -1.0554   -0.1895   -0.1868 C   0  0  0  0  0  0  0  0  0  0  0  0
   -0.2678    1.0098    0.3564 C   0  0  0  0  0  0  0  0  0  0  0  0
    1.1331    0.8019   -0.1358 C   0  0  0  0  0  0  0  0  0  0  0  0
    1.5836   -0.6081   -0.1723 C   0  0  0  0  0  0  0  0  0  0  0  0
    0.6038   -1.6558    0.1265 C   0  0  0  0  0  0  0  0  0  0  0  0
   -0.6364   -1.2592    0.5574 O   0  0  0  0  0  0  0  0  0  0  0  0
    0.3932   -2.5129   -0.9804 O   0  0  0  0  0  0  0  0  0  0  0  0
    2.7096   -0.7166    0.6778 O   0  0  0  0  0  0  0  0  0  0  0  0
    1.9655    1.6109    0.6742 O   0  0  0  0  0  0  0  0  0  0  0  0
   -0.8792    2.1388   -0.1306 O   0  0  0  0  0  0  0  0  0  0  0  0
   -3.3491   -0.8888   -0.4006 O   0  0  0  0  0  0  0  0  0  0  0  0
  1  2  1  0
  2  3  1  0
  3  4  1  0
  4  5  1  0
  5  6  1  0
  6  7  1  0
  6  8  1  0
  5  9  1  0
  4 10  1  0
  3 11  1  0
  1 12  1  0
  7  2  1  0
M  END
>  <StructureNum>  (1) 
1

>  <ConformerNum>  (1) 
1

>  <EnergyAbs>  (1) 
138.29777617245361

>  <ClusterNum>  (1) 
1

>  <ClusterCentroid>  (1) 
1

>  <RMSToCentroid>  (1) 
0.0

>  <EnergyDelta>  (1) 
0

$$$$
